 7 1 1   1988.00    7.00    6.00    0.00   30.00   60.00       1       1       1
       4       5 4.00000 1.000000.0500000.000700
       1C          15.00   75.00ft             0
    2.00   90.00    0.00    0.00    0.00    0.00    0.00    0.00    0.00    0.00
    0.00    0.00    0.00    0.00    0.00    0.00    0.00    0.00    0.00    0.00
    0.00    0.00    0.00    0.00    0.00    0.00    0.00    0.00    0.00    0.00
    0.00    0.00    0.00    0.00    0.00    0.00    0.00    0.00    0.00    0.00
    0.00    0.00    0.00    0.00    0.00    0.00    0.00    0.00    0.00    0.00
    0.00    0.00    0.00    0.00    0.00    0.00    0.00    0.00    0.00    0.00
    0.00    0.00    0.00    0.00    0.00    0.00    0.00    0.00    0.00    0.00
    0.00    0.00    0.00    0.00    0.00    0.00    0.00    0.00    0.00    0.00
       10.18E+10sq ft       0.00  260.00cfs            9
 4000.00 3800.00 3600.00 3200.00 3500.00 3800.00 4200.00 4300.00 4500.00
       1       1  104.00 1750.00feet          42
    0.00  -27.00  -27.00  -27.00  -27.00  -27.00  -27.00  -27.00  -27.00  -27.00
  -27.00  -18.00  -13.00  -13.00  -13.00  -13.00  -13.00  -13.00  -13.00  -18.00
  -24.00  -30.00  -32.00  -34.00  -34.00  -34.00  -34.00  -32.00  -32.00  -32.00
  -32.00  -24.00  -24.00  -24.00  -24.00  -25.00  -25.00  -18.00  -18.00  -18.00
  -18.00    0.00
       1       2  104.00 1625.00feet          15
    0.00  -30.00  -33.00  -33.00  -33.00  -34.00  -34.00  -34.00  -34.00  -34.00
  -30.00  -30.00  -20.00  -10.00    0.00
       1       3  104.00 1917.00FEET          24
    0.00  -12.00  -18.00  -20.00  -25.00  -30.00  -33.00  -34.00  -34.00  -34.00
  -34.00  -34.00  -34.00  -30.00  -18.00  -12.00   -8.00   -8.00   -8.00   -6.00
   -6.00   -6.00   -6.00    0.00
       1       4  104.00 1250.00feet          14
    0.00  -18.00  -37.00  -37.00  -50.00  -50.00  -50.00  -34.00  -34.00  -34.00
  -34.00  -24.00  -18.00    0.00
       1       5  104.00    0.00feet          37
    0.00  -11.00  -11.00  -11.00  -12.00  -12.00  -17.00  -17.00  -17.00  -15.00
  -15.00  -15.00  -18.00  -25.00  -25.00  -20.00  -20.00  -20.00  -34.00  -34.00
  -34.00  -34.00  -23.00  -18.00  -10.00  -10.00  -10.00  -10.00  -10.00  -10.00
  -10.00  -10.00  -10.00  -10.00  -10.00  -10.00    0.00
   15.00       4
       1       2       2       1       2       1       1       2       3       1
       2       4
